/*--------------------------------*- C++ -*----------------------------------*\
  =========                 |
  \\      /  F ield         | OpenFOAM: The Open Source CFD Toolbox
   \\    /   O peration     | Website:  https://openfoam.org
    \\  /    A nd           | Version:  12
     \\/     M anipulation  |
\*---------------------------------------------------------------------------*/
FoamFile
{
    format      ascii;
    class       volScalarField;
    location    "0";
    object      H2O;
}
// ************************************************************************* //

dimensions          [];

internalField       uniform 0.02230;

boundaryField
{
    walls
    {
        type            zeroGradient;
    }
    sideA
    {
        type            wedge;
    }
    sideB
    {
        type            wedge;
    }
    centerPlane
    {
        type            empty;
    }
}

// ************************************************************************* //
