!DETAILED CHEMICAL KINETIC MECHANISM FOR THE OXIDATION OF BIODIESEL FUELS BLEND SURROGATE
!OLIVIER HERBINET, WILLIAM J. PITZ AND CHARLES K. WESTBROOK
!LAWRENCE LIVERMORE NATIONAL LABORATORY
!COMBUSTION AND FLAME, SUBMITTED
!JULY 2009
!METHYL-9-DECENOATE & METHYL DECANOATE & N-HEPTANE
!LLNL-MI-415050
ELEMENTS
H C O N AR HE
END
!
!
!
!
SPECIES
AR N2 HE
!RADICALS WITHOUT O
H               	C               	CH              	CH2             	CH2(S)
CH3             	C2H5            	NC3H7           	PC4H9
SC4H9           	C3H5-A          	C2H3            	IC3H7           	IC4H9
C2H             	C3H5-S          	C3H5-T          	C3H3            	C3H2
C5H11-1         	C6H13-1         	C7H15-1         	C8H17-1         	C9H19-1
C5H11-2         	C6H13-2         	C7H15-2         	C8H17-2         	C9H19-2
C5H11-3         	C6H13-3         	C7H15-3         	C8H17-3         	C9H19-3
C7H15-4         	C8H17-4         	C9H19-4
C10H21-3        	C9H19-5
C9H17-13        	C8H15-13        	C7H13-13        	C6H11-13        	C5H9-13
C4H7-13         	C9H17-14        	C9H17-15        	C9H17-16        	C9H17-17
C9H17-18        	C9H17-19        	C8H15-14        	C8H15-15        	C8H15-16
C8H15-17        	C8H15-18        	C7H13-14        	C7H13-15        	C7H13-16
C7H13-17        	C6H11-14        	C6H11-15        	C6H11-16        	C5H9-14
C5H9-15         	C4H7-14		C9H17-11		C9H17-12		C8H15-11
C8H15-12		C7H13-11		C7H13-12		C6H11-11		C6H11-12
C5H9-11		C5H9-12		C4H7-11		C4H7-12		C4H81CH32
C9H181CH32      	C8H161CH32      	C7H141CH32      	C6H121CH32      	C5H101CH32
C8H15-31		C8H15-41		C8H15-38		C8H15-28		C5H9-25
C7H13-31		C7H13-37		C7H13-27		C6H11-31		C6H11-26
!RADICALS WITH O
O               	OH              	HO2             	CH2OH           	CH3O
HCO             	OCHO            	O2CHO           	HOCH2O          	HOCH2O2
CH3OCO          	C9H19CO         	CH3O2           
CH3CO           	CH2CO           	C2H5CO          	C3H7CO          	C4H9CO
C5H11CO         	C6H13CO         	C7H15CO         	C8H17CO         	C8H17CHCO
C7H15CHCO       	C6H13CHCO       	C5H11CHCO       	C4H9CHCO        	C3H7CHCO
C2H5O2          	C2H5O           	CH2CHO
C2H4O2H         	C2H4O1-2        	C2H3O1-2        	CH3CO3                  CH3CO2 
HCCO                    PC2H4OH                 SC2H4OH                 O2C2H4OH                CH3COCH2 
CH3COCH2O2              C2H3CO                  CH2OCHO                 CH3COCH2O               CH3OCH2
CH3OCH2O2       	HOCH2OCO        	CH2OCH2O2H      	CH3OCH2O        	O2CH2OCH2O2H
OCH2OCHO        	NC3H7O2         	IC3H7O2         	C3H6O1-2        	HOC3H6O2
C3H5O           	C2H3OOH         	C3H6OOH2-1
C3H6OOH2-2      	C3H6O1-3        	C3H6OOH1-2      	C3H6OOH1-3      	C3H6OOH1-2O2
C3H6OOH1-3O2    	C3H6OOH2-1O2    	C3KET12         	C3KET13         	C3KET21
C8H17COCO		C7H15COCH2CO	C4H9COC2H4		C4H9COCH2		C3H7COC2H4
C3H7COCH2		C2H5COCH2		C2H4COCH3		C2H4CHO		C5H11COCH2
C2H5COC2H4		CHOCO2J		DAOJ2OXO		DAOJ3OXO		C6H13COCH2
C5H11COC2H4		C4H9COC3H6		C3H7COC3H6		C2H5COC3H6		CH3COC3H6
CHOCH2CO		CH3COCH2CO		C2H5COCH2CO		C3H7COCH2CO		C4H9COCH2CO
C5H11COCH2CO	C6H13COCH2CO 
!
MD2J            	MD3J            	MD4J            	MD5J            	MD6J
MD7J            	MD8J            	MD9J            	MD10J           	MDMJ
MN9J            	MO8J            	MS7J            	MH6J            	MF5J
MB4J            	MP3J            	ME2J
MD9D            	MD8D            	MD7D            	MD6D            	MD5D
MD4D            	MD3D            	MD2D            	MN8D            	MN7D
MN6D            	MN5D            	MN4D            	MN3D            	MN2D
MO7D            	MO6D            	MO5D            	MO4D            	MO3D
MO2D            	MS6D            	MS5D            	MS4D            	MS3D
MS2D            	MH5D            	MH4D            	MH3D            	MH2D
MF4D            	MF3D            	MF2D            	MB3D            	MB2D
MP2D            	MN8J            	MN7J            	MN6J            	MN5J
MN4J            	MN3J            	MN2J            	MO7J            	MO6J
MO5J            	MO4J            	MO3J            	MO2J            	MS6J
MS5J            	MS4J            	MS3J            	MS2J            	MH5J
MH4J            	MH3J            	MH2J            	MF4J            	MF3J
MF2J            	MB3J            	MB2J            	MP2J            	MNMJ
MOJM            	MSMJ            	MHMJ            	MFMJ            	MBMJ
MPMJ            	MEMJ            	PEAOJ
MP2DMJ          	MB3DMJ          	MB3D2J          	MF4DMJ          	MF4D2J
MF4D3J          	MH5DMJ          	MH5D2J          	MH5D3J          	MH5D4J
MS6DMJ          	MS6D2J          	MS6D3J          	MS6D4J          	MS6D5J
MO7DMJ          	MO7D2J          	MO7D3J          	MO7D4J          	MO7D5J
MO7D6J          	MN8DMJ          	MN8D2J          	MN8D3J          	MN8D4J       
MN8D5J          	MN8D6J         	MN8D7J          	MD9DMJ          	MD9D2J
MD9D3J          	MD9D4J          	MD9D5J          	MD9D6J          	MD9D7J 
MD9D8J     		MP2D2J		MP2D3J		MB3D3J		MB3D4J
MF4D4J			MF4D5J			MH5D5J			MH5D6J			MS6D6J
MS6D7J			MO7D7J			MO7D8J			MN8D8J			MN8D9J
MD9D9J			MD9DXJ			MF2D5J			MH3D6J			MS4D7J
MO5D8J			MH2D6J			MS3D7J			MO4D8J
MO3D8J			MS2D7J			MO2D8J
MD8DMJ			MD8D2J			MD8D3J			MD8D4J			MD8D5J
MD8D6J			MD8D7J			MD8D8J			MD8D9J
MD7DMJ			MD7D2J			MD7D3J			MD7D4J			MD7D5J
MD7D6J			MD7D7J			MD7D8J			MD7D10J
MD6DMJ			MD6D2J			MD6D3J			MD6D4J			MD6D5J
MD6D6J			MD6D7J			MD6D9J			MD6D10J
MD5DMJ			MD5D2J			MD5D3J			MD5D4J			MD5D5J
MD5D6J			MD5D8J			MD5D9J			MD5D10J
MD4DMJ			MD4D2J			MD4D3J			MD4D4J			MD4D5J
MD4D7J			MD4D8J			MD4D9J			MD4D10J
MD3DMJ			MD3D2J			MD3D3J			MD3D4J
MD3D6J			MD3D7J			MD3D8J			MD3D9J			MD3D10J
MD2DMJ			MD2D2J			MD2D3J			MD2D5J
MD2D6J			MD2D7J			MD2D8J			MD2D9J			MD2D10J
!
C3H5CO          	C4H7CO         	C5H9CO          	C6H11CO         	C7H13CO
C8H15CO         	C9H17CO
C9H17CO-2		C9H17CO-3		C9H17CO-4		C9H17CO-5		C9H17CO-6
C9H17CO-7		C9H17CO-8
!RO2 RADICALS
C9H19O2-1       	C8H17O2-1       	C7H15O2-1       	C6H13O2-1       	C5H11O2-1
C9H19O2-2       	C8H17O2-2       	C7H15O2-2       	C6H13O2-2       	C5H11O2-2
C9H19O2-3       	C8H17O2-3       	C7H15O2-3       	C6H13O2-3       	C5H11O2-3
C9H19O2-4       	C8H17O2-4       	C7H15O2-4       	PC4H9O2         	SC4H9O2
C9H19O2-5
ME2O2           	MEMO2           	MPMO2           	MP2O2           	MP3O2
MBMO2          	MB2O2          	MB3O2           	MB4O2           	MFMO2
MF2O2           	MF3O2           	MF4O2           	MF5O2          	MHMO2
MH2O2           	MH3O2           	MH4O2           	MH5O2           	MH6O2
MSMO2           	MS2O2           	MS3O2           	MS4O2           	MS5O2
MS6O2           	MS7O2           	MAMO2           	MO2O2           	MO3O2
MO4O2           	MO5O2           	MO6O2           	MO7O2           	MO8O2
MNMO2           	MN2O2           	MN3O2           	MN4O2           	MN5O2
MN6O2           	MN7O2           	MN8O2           	MN9O2           	MDMO2
MD2O2           	MD3O2           	MD4O2           	MD5O2           	MD6O2
MD7O2           	MD8O2           	MD9O2           	MD10O2
!QOOH RADICALS
C4H8OOH1-2    	C4H8OOH1-3      	C4H8OOH1-4      	C4H8OOH2-1      	C4H8OOH2-3
C4H8OOH2-4     	C5H10OOH1-2     	C5H10OOH1-3     	C5H10OOH1-4     	C5H10OOH1-5
C5H10OOH2-1     	C5H10OOH2-3     	C5H10OOH2-4     	C5H10OOH2-5     	C5H10OOH3-1
C5H10OOH3-2     	C6H12OOH1-2     	C6H12OOH1-3     	C6H12OOH1-4     	C6H12OOH1-5
C6H12OOH2-1    	C6H12OOH2-3     	C6H12OOH2-4     	C6H12OOH2-5     	C6H12OOH2-6
C6H12OOH3-1     	C6H12OOH3-2     	C6H12OOH3-4     	C6H12OOH3-5     	C6H12OOH3-6
C7H14OOH1-2     	C7H14OOH1-3     	C7H14OOH1-4     	C7H14OOH1-5     	C7H14OOH2-1
C7H14OOH2-3     	C7H14OOH2-4     	C7H14OOH2-5     	C7H14OOH2-6     	C7H14OOH3-1
C7H14OOH3-2     	C7H14OOH3-4     	C7H14OOH3-5     	C7H14OOH3-6     	C7H14OOH3-7
C7H14OOH4-1     	C7H14OOH4-2     	C7H14OOH4-3     	C8H16OOH1-2     	C8H16OOH1-3
C8H16OOH1-4     	C8H16OOH1-5     	C8H16OOH2-1     	C8H16OOH2-3     	C8H16OOH2-4
C8H16OOH2-5     	C8H16OOH2-6     	C8H16OOH3-1    	C8H16OOH3-2     	C8H16OOH3-4
C8H16OOH3-5     	C8H16OOH3-6     	C8H16OOH3-7     	C8H16OOH4-1     	C8H16OOH4-2
C8H16OOH4-3     	C8H16OOH4-5     	C8H16OOH4-6     	C8H16OOH4-7     	C8H16OOH4-8
C9H18OOH1-2     	C9H18OOH1-3     	C9H18OOH1-4     	C9H18OOH1-5     	C9H18OOH2-1
C9H18OOH2-3     	C9H18OOH2-4     	C9H18OOH2-5     	C9H18OOH2-6     	C9H18OOH3-1
C9H18OOH3-2     	C9H18OOH3-4     	C9H18OOH3-5     	C9H18OOH3-6     	C9H18OOH3-7
C9H18OOH4-1     	C9H18OOH4-2     	C9H18OOH4-3     	C9H18OOH4-5     	C9H18OOH4-6
C9H18OOH4-7     	C9H18OOH4-8     	C9H18OOH5-1     	C9H18OOH5-2     	C9H18OOH5-3
C9H18OOH5-4
!
MEMOOH2J		ME2OOHMJ		MPMOOH2J		MPMOOH3J		MP2OOHMJ
MP2OOH3J		MP3OOHMJ		MP3OOH2J		MBMOOH2J		MBMOOH3J
MB2OOHMJ		MB2OOH3J		MB2OOH4J		MB3OOHMJ		MB3OOH2J
MB3OOH4J		MB4OOH3J		MB4OOH2J		MFMOOH2J		MFMOOH3J
MF2OOHMJ		MF2OOH3J		MF2OOH4J		MF2OOH5J		MF3OOHMJ
MF3OOH2J		MF3OOH4J		MF3OOH5J		MF4OOH3J		MF4OOH2J
MF4OOH5J		MF5OOH4J		MF5OOH3J		MF5OOH2J		MHMOOH2J
MHMOOH3J		MH2OOHMJ		MH2OOH3J		MH2OOH4J		MH2OOH5J
MH2OOH6J		MH3OOHMJ		MH3OOH2J		MH3OOH4J		MH3OOH5J
MH3OOH6J		MH4OOH3J		MH4OOH2J		MH4OOH5J		MH4OOH6J
MH5OOH4J		MH5OOH3J		MH5OOH2J		MH5OOH6J		MH6OOH5J
MH6OOH4J		MH6OOH3J		MH6OOH2J		MSMOOH2J		MSMOOH3J
MS2OOHMJ		MS2OOH3J		MS2OOH4J		MS2OOH5J		MS2OOH6J
MS3OOHMJ		MS3OOH2J		MS3OOH4J		MS3OOH5J		MS3OOH6J
MS3OOH7J		MS4OOH3J		MS4OOH2J		MS4OOH5J		MS4OOH6J
MS4OOH7J		MS5OOH4J		MS5OOH3J		MS5OOH2J		MS5OOH6J
MS5OOH7J		MS6OOH5J		MS6OOH4J		MS6OOH3J		MS6OOH2J
MS6OOH7J		MS7OOH6J		MS7OOH5J		MS7OOH4J		MS7OOH3J
MAMOOH2J		MAMOOH3J		MO2OOHMJ		MO2OOH3J		MO2OOH4J
MO2OOH5J		MO2OOH6J		MO3OOHMJ		MO3OOH2J		MO3OOH4J
MO3OOH5J		MO3OOH6J		MO3OOH7J		MO4OOH3J		MO4OOH2J
MO4OOH5J		MO4OOH6J		MO4OOH7J		MO4OOH8J		MO5OOH4J
MO5OOH3J		MO5OOH2J		MO5OOH6J		MO5OOH7J		MO5OOH8J
MO6OOH5J		MO6OOH4J		MO6OOH3J		MO6OOH2J		MO6OOH7J
MO6OOH8J		MO7OOH6J		MO7OOH5J		MO7OOH4J		MO7OOH3J
MO7OOH8J		MO8OOH7J		MO8OOH6J		MO8OOH5J		MO8OOH4J
MNMOOH2J		MNMOOH3J		MN2OOHMJ		MN2OOH3J		MN2OOH4J
MN2OOH5J		MN2OOH6J		MN3OOHMJ		MN3OOH2J		MN3OOH4J
MN3OOH5J		MN3OOH6J		MN3OOH7J		MN4OOH3J		MN4OOH2J
MN4OOH5J		MN4OOH6J		MN4OOH7J		MN4OOH8J		MN5OOH4J
MN5OOH3J		MN5OOH2J		MN5OOH6J		MN5OOH7J		MN5OOH8J
MN5OOH9J		MN6OOH5J		MN6OOH4J		MN6OOH3J		MN6OOH2J
MN6OOH7J		MN6OOH8J		MN6OOH9J		MN7OOH6J		MN7OOH5J
MN7OOH4J		MN7OOH3J		MN7OOH8J		MN7OOH9J		MN8OOH7J
MN8OOH6J		MN8OOH5J		MN8OOH4J		MN8OOH9J		MN9OOH8J
MN9OOH7J		MN9OOH6J		MN9OOH5J		MDMOOH2J		MDMOOH3J
MD2OOHMJ		MD2OOH3J		MD2OOH4J		MD2OOH5J		MD2OOH6J
MD3OOHMJ		MD3OOH2J		MD3OOH4J		MD3OOH5J		MD3OOH6J
MD3OOH7J		MD4OOH3J		MD4OOH2J		MD4OOH5J		MD4OOH6J
MD4OOH7J		MD4OOH8J		MD5OOH4J		MD5OOH3J		MD5OOH2J
MD5OOH6J		MD5OOH7J		MD5OOH8J		MD5OOH9J		MD6OOH5J
MD6OOH4J		MD6OOH3J		MD6OOH2J		MD6OOH7J		MD6OOH8J
MD6OOH9J		MD6OOH10J		MD7OOH6J		MD7OOH5J		MD7OOH4J
MD7OOH3J		MD7OOH8J		MD7OOH9J		MD7OOH10J		MD8OOH7J
MD8OOH6J		MD8OOH5J		MD8OOH4J		MD8OOH9J		MD8OOH10J
MD9OOH8J		MD9OOH7J		MD9OOH6J		MD9OOH5J		MD9OOH10J
MD10OOH9J		MD10OOH8J		MD10OOH7J		MD10OOH6J
!RO AND ROH RADICALS
C3H6OH1J2		C4H8OH1J2		C5H10OH1J2		C6H12OH1J2		C7H14OH1J2
C8H16OH1J2		C9H18OH1J2		C3H6OH2J1		C4H8OH2J1		C5H10OH2J1
C6H12OH2J1		C7H14OH2J1		C8H16OH2J1		C9H18OH2J1		C5H11O-3
NC3H7O			IC3H7O			PC4H9O			SC4H9O			C5H11O-1
C5H11O-2		C6H13O-1		C6H13O-2		C7H15O-1		C7H15O-2
C8H17O-1		C8H17O-2		C9H19O-1		C9H19O-2		C6H13O-3
C7H15O-3		C7H15O-4		C8H17O-3		C8H17O-4		C9H19O-3
C9H19O-4		C9H19O-5
MP2JOH3			MP3JOH2			MB3JOH4			MB4JOH3			MF4JOH5
MF5JOH4			MH5JOH6			MH6JOH5			MS6JOH7			MS7JOH6
MO7JOH8			MO8JOH7			MN8JOH9			MN9JOH8			MD9JOH10
MD10JOH9
MP3O			MP2O			MB4O			MB3O			MF5O
MF4O			MH6O			MH5O			MS7O			MS6O
MO8O			MO7O			MN9O			MN8O			MD10O
MD9O			MD8O			MD7O			MD6O			MD5O
MD4O			MD3O			MD2O			MDMO			MEMO
ME2O			MPMO			MBMO			MB2O			MFMO
MF2O			MF3O			MHMO			MH2O			MH3O
MH4O			MSMO			MS2O			MS3O			MS4O
MS5O			MAMO			MO2O			MO3O			MO4O
MO5O			MO6O			MNMO			MN2O			MN3O
MN4O			MN5O			MN6O			MN7O
!OOQOOH
MDMOOH2O2
MDMOOH3O2		MD2OOHMO2		MD2OOH3O2		MD2OOH4O2		MD2OOH5O2
MD2OOH6O2		MD3OOHMO2		MD3OOH2O2		MD3OOH4O2		MD3OOH5O2
MD3OOH6O2		MD3OOH7O2		MD4OOH3O2		MD4OOH2O2		MD4OOH5O2
MD4OOH6O2		MD4OOH7O2		MD4OOH8O2		MD5OOH4O2		MD5OOH3O2	
MD5OOH2O2		MD5OOH6O2		MD5OOH7O2		MD5OOH8O2		MD5OOH9O2
MD6OOH5O2		MD6OOH4O2		MD6OOH3O2		MD6OOH2O2		MD6OOH7O2
MD6OOH8O2		MD6OOH9O2		MD6OOH10O2		MD7OOH6O2		MD7OOH5O2
MD7OOH4O2		MD7OOH3O2		MD7OOH8O2		MD7OOH9O2		MD7OOH10O2
MD8OOH7O2		MD8OOH6O2		MD8OOH5O2		MD8OOH4O2		MD8OOH9O2
MD8OOH10O2		MD9OOH8O2		MD9OOH7O2		MD9OOH6O2		MD9OOH5O2
MD9OOH10O2		MD10OOH9O2		MD10OOH8O2		MD10OOH7O2		MD10OOH6O2
!HOOQOOH RADICALS
!MDDIPXM2J3		MDDIPX23JM		MDDIPX25J3		MDDIPX34J2		MDDIPX36J2
!MDDIPXM2J4		MDDIPX23J4		MDDIPX25J4		MDDIPX34J5		MDDIPX36J4
!MDDIPXM2J5		MDDIPX23J5		MDDIPX25J6		MDDIPX34J6		MDDIPX36J5
!MDDIPXM2J6		MDDIPX23J6		MDDIPX25J7		MDDIPX34J7		MDDIPX36J7
!MDDIPXM3J2		MDDIPX23J7		MDDIPX25J8		MDDIPX34J8		MDDIPX36J8
!MDDIPXM3J4		MDDIPX24J3		MDDIPX25J9		MDDIPX35J2		MDDIPX36J9
!MDDIPXM3J5		MDDIPX24J5		MDDIPX26J3		MDDIPX35J4		MDDIPX36J10
!MDDIPXM3J6		MDDIPX24J6		MDDIPX26J4		MDDIPX35J6		MDDIPX37J4
!MDDIPXM3J7		MDDIPX24J7		MDDIPX26J5		MDDIPX35J7		MDDIPX37J5
!MDDIPX24JM		MDDIPX24J8		MDDIPX26J7		MDDIPX35J8		MDDIPX37J6
!MDDIPX25JM		MDDIPX36JM		MDDIPX26J8		MDDIPX35J9		MDDIPX37J8
!MDDIPX26JM		MDDIPX37JM		MDDIPX26J9		MDDIPX46J2		MDDIPX37J9
!MDDIPX45J2		MDDIPX37J2		MDDIPX26J10		MDDIPX46J3		MDDIPX37J10
!MDDIPX45J3		MDDIPX47J3		MDDIPX48J5		MDDIPX46J5		MDDIPX34JM
!MDDIPX45J6		MDDIPX47J5		MDDIPX48J6		MDDIPX46J7		MDDIPX35JM
!MDDIPX45J7		MDDIPX47J6		MDDIPX48J7		MDDIPX46J8		MDDIPX47J2
!MDDIPX45J8		MDDIPX47J8		MDDIPX48J9		MDDIPX46J9		MDDIPX48J2
!MDDIPX45J9		MDDIPX47J9		MDDIPX48J10		MDDIPX46J10		MDDIPX48J3
!MDDIPX56J2		MDDIPX47J10		MDDIPX59J6		MDDIPX68J2		MDDIPX90J6
!MDDIPX56J3		MDDIPX57J3		MDDIPX59J7		MDDIPX68J3		MDDIPX90J7
!MDDIPX56J4		MDDIPX57J4		MDDIPX59J8		MDDIPX69J2		MDDIPX90J9
!MDDIPX56J7		MDDIPX57J6		MDDIPX59J10		MDDIPX69J3		MDDIPX90J4
!MDDIPX56J8		MDDIPX57J8		MDDIPX57J2		MDDIPX69J4		MDDIPX90J5
!MDDIPX56J9		MDDIPX57J9		MDDIPX58J2		MDDIPX70J2		MDDIPX100J5
!MDDIPX56J10		MDDIPX57J10		MDDIPX58J3		MDDIPX70J3		MDDIPX100J6
!MDDIPX58J4		MDDIPX67J2		MDDIPX59J2		MDDIPX70J4		MDDIPX100J7
!MDDIPX58J6		MDDIPX67J3		MDDIPX59J3		MDDIPX70J5		MDDIPX100J8
!MDDIPX58J7		MDDIPX67J4		MDDIPX59J4		MDDIPX80J3		MDDIPX69J5
!MDDIPX58J9		MDDIPX67J5		MDDIPX80J6		MDDIPX80J4		MDDIPX69J7
!MDDIPX58J10		MDDIPX67J8		MDDIPX80J8		MDDIPX80J5		MDDIPX69J8
!MDDIPX68J4		MDDIPX67J9		MDDIPX80J9		MDDIPX79J3		MDDIPX69J10
!MDDIPX68J5		MDDIPX67J10		MDDIPX78J3		MDDIPX79J4		MDDIPX78J6
!MDDIPX68J7		MDDIPX70J7		MDDIPX89J4		MDDIPX78J4		MDDIPX78J9
!MDDIPX68J9		MDDIPX70J8		MDDIPX89J5		MDDIPX78J5		MDDIPX78J10
!MDDIPX68J10		MDDIPX70J9		MDDIPX89J6		MDDIPX89J10		MDDIPX79J10
!MDDIPX79J6		MDDIPX79J5		MDDIPX89J7		MDDIPX79J8		
!CARBOXYLATES
EAOJ			PAOJ			BAOJ			FAOJ			HAOJ
SAOJ			OAOJ			NAOJ			DAOJ
!MDXDYO
!MD2DMO			MD2D2O			MD2D3O			MD2D4O			MD2D5O
!MD2D6O			MD2D7O			MD3DMO			MD3D2O			MD3D3O
!MD3D4O			MD3D5O			MD3D6O			MD3D7O			MD3D8O
!MD4D2O			MD4D3O			MD4D4O			MD4D5O			MD4D6O
!MD4D7O			MD4D8O			MD4D9O			MD5D2O			MD5D3O
!MD5D4O			MD5D5O			MD5D6O			MD5D7O			MD5D8O
!MD5D9O			MD5D10O			MD6D2O			MD6D3O			MD6D4O
!MD6D5O			MD6D6O			MD6D7O			MD6D8O			MD6D9O
!MD6D10O	MD7D2O			MD7D3O			MD7D4O			MD7D5O
!MD7D6O			MD7D7O			MD7D8O			MD7D9O			MD7D10O
!MD8D2O			MD8D3O			MD8D4O			MD8D5O			MD8D6O
!MD8D7O			MD8D8O			MD8D9O			MD8D10O			MD9D2O
!MD9D3O			MD9D4O			MD9D5O			MD9D6O			MD9D7O
!MD9D8O			MD9D9O			MD9D10O
!RADICALS FROM THE DECOMPOSITION OF HYDROPEROXYKETONES
NC4KET12O		NC8KET25O		MBKET32O		MSKET36O		MOKET73O
NC4KET13O		NC8KET26O		MBKET34O		MSKET37O		MOKET78O
NC4KET14O		NC8KET31O		MBKET43O		MSKET43O		MOKET87O
NC4KET21O		NC8KET32O		MBKET42O		MSKET42O		MOKET86O
NC4KET23O		NC8KET34O		MFKETM2O		MSKET45O		MOKET85O
NC4KET24O		NC8KET35O		MFKETM3O		MSKET46O		MOKET84O
NC5KET12O		NC8KET36O		MFKET2MO		MSKET47O		MNKETM2O
NC5KET13O		NC8KET37O		MFKET23O		MSKET54O		MNKETM3O
NC5KET14O		NC8KET41O		MFKET24O		MSKET53O		MNKET2MO
NC5KET15O		NC8KET42O		MFKET25O		MSKET52O		MNKET23O
NC5KET21O		NC8KET43O		MFKET3MO		MSKET56O		MNKET24O
NC5KET23O		NC8KET45O		MFKET32O		MSKET57O		MNKET25O
NC5KET24O		NC8KET46O		MFKET34O		MSKET65O		MNKET26O
NC5KET25O		NC8KET47O		MFKET35O		MSKET64O		MNKET3MO
NC5KET31O		NC8KET48O		MFKET43O		MSKET63O		MNKET32O
NC5KET32O		NC9KET12O		MFKET42O		MSKET62O		MNKET34O
NC6KET12O		NC9KET13O		MFKET45O		MSKET67O		MNKET35O
NC6KET13O		NC9KET14O		MFKET54O		MSKET76O		MNKET36O
NC6KET14O		NC9KET15O		MFKET53O		MSKET75O		MNKET37O
NC6KET15O		NC9KET21O		MFKET52O		MSKET74O		MNKET43O
NC6KET21O		NC9KET23O		MHKETM2O		MSKET73O		MNKET42O
NC6KET23O		NC9KET24O		MHKETM3O		MOKETM2O		MNKET45O
NC6KET24O		NC9KET25O		MHKET2MO		MOKETM3O		MNKET46O
NC6KET25O		NC9KET26O		MHKET23O		MOKET2MO		MNKET47O
NC6KET26O		NC9KET31O		MHKET24O		MOKET23O		MNKET48O
NC6KET31O		NC9KET32O		MHKET25O		MOKET24O		MNKET54O
NC6KET32O		NC9KET34O		MHKET26O		MOKET25O		MNKET53O
NC6KET34O		NC9KET35O		MHKET3MO		MOKET26O		MNKET52O
NC6KET35O		NC9KET36O		MHKET32O		MOKET3MO		MNKET56O
NC6KET36O		NC9KET37O		MHKET34O		MOKET32O		MNKET57O
NC7KET12O		NC9KET41O		MHKET35O		MOKET34O		MNKET58O
NC7KET13O		NC9KET42O		MHKET36O		MOKET35O		MNKET59O
NC7KET14O		NC9KET43O		MHKET43O		MOKET36O		MNKET65O
NC7KET15O		NC9KET45O		MHKET42O		MOKET37O		MNKET64O
NC7KET21O		NC9KET46O		MHKET45O		MOKET43O		MNKET63O
NC7KET23O		NC9KET47O		MHKET46O		MOKET42O		MNKET62O
NC7KET24O		NC9KET48O		MHKET54O		MOKET45O		MNKET67O
NC7KET25O		NC9KET51O		MHKET53O		MOKET46O		MNKET68O
NC7KET26O		NC9KET52O		MHKET52O		MOKET47O		MNKET69O
NC7KET31O		NC9KET53O		MHKET56O		MOKET48O		MNKET76O
NC7KET32O		NC9KET54O		MHKET65O		MOKET54O		MNKET75O
NC7KET34O		MEKETM2O		MHKET64O		MOKET53O		MNKET74O
NC7KET35O		MEKET2MO		MHKET63O		MOKET52O		MNKET73O
NC7KET36O		MPKETM2O		MHKET62O		MOKET56O		MNKET78O
NC7KET37O		MPKETM3O		MSKETM2O		MOKET57O		MNKET79O
NC7KET41O		MPKET2MO		MSKETM3O		MOKET58O		MNKET87O
NC7KET42O		MPKET23O		MSKET2MO		MOKET65O		MNKET86O
NC7KET43O		MPKET3MO		MSKET23O		MOKET64O		MNKET85O
NC8KET12O		MPKET32O		MSKET24O		MOKET63O		MNKET84O
NC8KET13O		MBKETM2O		MSKET25O		MOKET62O		MNKET89O
NC8KET14O		MBKETM3O		MSKET26O		MOKET67O		MNKET98O
NC8KET15O		MBKET2MO		MSKET3MO		MOKET68O		MNKET97O
NC8KET21O		MBKET23O		MSKET32O		MOKET76O		MNKET96O
NC8KET23O		MBKET24O		MSKET34O		MOKET75O		MNKET95O
NC8KET24O		MBKET3MO		MSKET35O		MOKET74O		
MDKETM2O		MDKET37O		MDKET58O		MDKET74O		MDKET97O
MDKETM3O		MDKET43O		MDKET59O		MDKET73O		MDKET96O
MDKET2MO		MDKET42O		MDKET65O		MDKET78O		MDKET95O
MDKET23O		MDKET45O		MDKET64O		MDKET79O		MDKET100O
MDKET24O		MDKET46O		MDKET63O		MDKET80O		MDKET109O
MDKET25O		MDKET47O		MDKET62O		MDKET87O		MDKET108O
MDKET26O		MDKET48O		MDKET67O		MDKET86O		MDKET107O
MDKET3MO		MDKET54O		MDKET68O		MDKET85O		MDKET106O
MDKET32O		MDKET53O		MDKET69O		MDKET84O		
MDKET34O		MDKET52O		MDKET70O		MDKET89O		
MDKET35O		MDKET56O		MDKET76O		MDKET90O		
MDKET36O		MDKET57O		MDKET75O		MDKET98O		
!RADICALS FROM THE DECOMPOSITION OF HYDROPEROXY CYCLIC ETHERS
!MDXOXOYJ
MDMOXO2J		MD3OXO7J		MD5OXO8J		MD7OXO5J		MD9OXO6J
MDMOXO3J		MD4OXO2J		MD5OXO9J		MD7OXO6J		MD9OXO7J
MD2OXOMJ		MD4OXO3J		MD6OXO2J		MD7OXO8J		MD9OXO8J
MD2OXO3J		MD4OXO5J		MD6OXO3J		MD7OXO9J		MD9OXO10J
MD2OXO4J		MD4OXO6J		MD6OXO4J		MD7OXO10J		MD10OXO6J
MD2OXO5J		MD4OXO7J		MD6OXO5J		MD8OXO4J		MD10OXO7J
MD2OXO6J		MD4OXO8J		MD6OXO7J		MD8OXO5J		MD10OXO8J
MD3OXOMJ		MD5OXO2J		MD6OXO8J		MD8OXO6J		MD10OXO9J
MD3OXO2J		MD5OXO3J		MD6OXO9J		MD8OXO7J
MD3OXO4J		MD5OXO4J		MD6OXO10J		MD8OXO9J
MD3OXO5J		MD5OXO6J		MD7OXO3J		MD8OXO10J
MD3OXO6J		MD5OXO7J		MD7OXO4J		MD9OXO5J
ME2OXO2J		MP2OXO3J		MB2OXO4J		MP3OXO3J		MB3OXO4J
MH4OXO6J		MF3OXO5J		MF4OXO5J		MB4OXO4J		MF5OXO5J
MH6OXO6J		MO6OXO8J		MS7OXO7J		MS5OXO7J		MH5OXO6J
MS6OXO7J		MO8OXO8J		MO7OXO8J		MEMOXO2J		MF2OXO5J
MH3OXO6J		MS4OXO7J		MO5OXO8J		MN6OXO9J		MN7OXO9J
MN8OXO9J		MN9OXO9J			
ME2OXOMJ		MPMOXO2J		MPMOXO3J		MP2OXOMJ
MP3OXOMJ		MP3OXO2J		MBMOXO2J		MBMOXO3J		MB2OXOMJ
MB2OXO3J		MB3OXOMJ		MB3OXO2J		MB4OXO2J		MB4OXO3J
MFMOXO2J		MFMOXO3J		MF2OXOMJ		MF2OXO3J		MF2OXO4J
MF3OXOMJ		MF3OXO2J		MF3OXO4J		MF4OXO2J		MF4OXO3J
MF5OXO2J		MF5OXO3J		MF5OXO4J		MHMOXO2J
MHMOXO3J		MH2OXOMJ		MH2OXO3J		MH2OXO4J		MH2OXO5J
MH2OXO6J		MH3OXOMJ		MH3OXO2J		MH3OXO4J		MH3OXO5J
MH4OXO2J		MH4OXO3J		MH4OXO5J		MH5OXO2J
MH5OXO3J		MH5OXO4J		MH6OXO2J		MH6OXO3J		MH6OXO4J
MH6OXO5J		MSMOXO2J		MSMOXO3J		MS2OXOMJ		MS2OXO3J
MS2OXO4J		MS2OXO5J		MS2OXO6J		MS3OXOMJ		MS3OXO2J
MS3OXO4J		MS3OXO5J		MS3OXO6J		MS3OXO7J		MS4OXO2J
MS4OXO3J		MS4OXO5J		MS4OXO6J		MS5OXO2J		MS5OXO3J
MS5OXO4J		MS5OXO6J		MS6OXO2J		MS6OXO3J		MS6OXO4J
MS6OXO5J		MS7OXO3J		MS7OXO4J		MS7OXO5J		MS7OXO6J
MOMOXO2J		MOMOXO3J		MO2OXOMJ		MO2OXO3J		MO2OXO4J
MO2OXO5J		MO2OXO6J		MO3OXOMJ		MO3OXO2J		MO3OXO4J
MO3OXO5J		MO3OXO6J		MO3OXO7J		MO4OXO2J		MO4OXO3J
MO4OXO5J		MO4OXO6J		MO4OXO7J		MO4OXO8J		MO5OXO2J
MO5OXO3J		MO5OXO4J		MO5OXO6J		MO5OXO7J		MO6OXO2J
MO6OXO3J		MO6OXO4J		MO6OXO5J		MO6OXO7J		MO7OXO3J
MO7OXO4J		MO7OXO5J		MO7OXO6J		MO8OXO4J		MO8OXO5J
MO8OXO6J		MO8OXO7J		MNMOXO2J		MNMOXO3J		MN2OXOMJ
MN2OXO3J		MN2OXO4J		MN2OXO5J		MN2OXO6J		MN3OXOMJ
MN3OXO2J		MN3OXO4J		MN3OXO5J		MN3OXO6J		MN3OXO7J
MN4OXO2J		MN4OXO3J		MN4OXO5J		MN4OXO6J		MN4OXO7J
MN4OXO8J		MN5OXO2J		MN5OXO3J		MN5OXO4J		MN5OXO6J
MN5OXO7J		MN5OXO8J		MN5OXO9J		MN6OXO2J		MN6OXO3J
MN6OXO4J		MN6OXO5J		MN6OXO7J		MN6OXO8J		MN7OXO3J
MN7OXO4J		MN7OXO5J		MN7OXO6J		MN7OXO8J		MN8OXO4J
MN8OXO5J		MN8OXO6J		MN8OXO7J		MN9OXO5J		MN9OXO6J
MN9OXO7J		MN9OXO8J						
!
C2H5CHJCHO		CH3CHJCH2CHO		CH3CHJCOCH3		C3H7CHJCHO		C2H5CHJCH2CHO
CH3CHJC2H4CHO		C2H5CHJCOCH3		CH3CHJCH2COCH3		C4H9CHJCHO		C3H7CHJCH2CHO
C2H5CHJC2H4CHO		CH3CHJC3H6CHO		C3H7CHJCOCH3		CH3CHJCOC3H7		C2H5CHJCH2COCH3
CH3CHJCH2COC2H5		CH3CHJC2H4COCH3		C2H5CHJCOC2H5		C5H11CHJCHO		C4H9CHJCH2CHO
C3H7CHJC2H4CHO		C2H5CHJC3H6CHO		C4H9CHJCOCH3		CH3CHJCOC4H9		C3H7CHJCH2COCH3
CH3CHJCH2COC3H7		C2H5CHJC2H4COCH3	CH3CHJC2H4COC2H5	CH3CHJC3H6COCH3
C3H7CHJCOC2H5
C2H5CHJCOC3H7		C2H5CHJCH2COC2H5	C6H13CHJCHO		C5H11CHJCH2CHO
C4H9CHJC2H4CHO
C3H7CHJC3H6CHO		C5H11CHJCOCH3		CH3CHJCOC5H11		C4H9CHJCH2COCH3
CH3CHJCH2COC4H9
C3H7CHJC2H4COCH3	CH3CHJC2H4COC3H7	C2H5CHJC3H6COCH3	CH3CHJC3H6COC2H5
C4H9CHJCOC2H5
C2H5CHJCOC4H9		C3H7CHJCH2COC2H5	C2H5CHJCH2COC3H7	C2H5CHC2H4COC2H5
C3H7CHJCOC3H7
C7H15CHJCHO		C6H13CHJCH2CHO		C5H11CHJC2H4CHO		C4H9CHJC3H6CHO
C6H13CHJCOCH3
CH3CHJCOC6H13		C5H11CHJCH2COCH3	CH3CHJCH2COC5H11	C4H9CHJC2H4COCH3
CH3CHJC2H4COC4H9
C3H7CHJC3H6COCH3	CH3CHJC3H6COC3H7	C5H11CHJCOC2H5		C2H5CHJCOC5H11
C4H9CHJCH2COC2H5
C2H5CHJCH2COC4H9	C3H7CHC2H4COC2H5	C2H5CHC2H4COC3H7	C2H5CHC3H6COC2H5
C4H9CHJCOC3H7
C3H7CHJCOC4H9		C3H7CHJCH2COC3H7	C4H9COC4H8
CH3COC4H8		C2H5COC4H8		C3H7COC4H8		C5H11COC3H6
C6H13COC2H4
C7H15COCH2		C4H8CHO
!
!
!
!
!
!
!RADICALS FROM REACTION TYPE 27B
!RADICALS ADDED FOR REACTION TYPE 22
C4H8OOH1-2O2	C4H8OOH1-3O2	C4H8OOH1-4O2	C4H8OOH2-1O2	C4H8OOH2-3O2
C4H8OOH2-4O2	C5H10OOH1-2O2	C5H10OOH1-3O2	C5H10OOH1-4O2	C5H10OOH1-5O2
C5H10OOH2-1O2	C5H10OOH2-3O2	C5H10OOH2-4O2	C5H10OOH2-5O2	C5H10OOH3-1O2
C5H10OOH3-2O2	C6H12OOH1-2O2	C6H12OOH1-3O2	C6H12OOH1-4O2	C6H12OOH1-5O2
C6H12OOH2-1O2	C6H12OOH2-3O2	C6H12OOH2-4O2	C6H12OOH2-5O2	C6H12OOH2-6O2
C6H12OOH3-1O2	C6H12OOH3-2O2	C6H12OOH3-4O2	C6H12OOH3-5O2	C6H12OOH3-6O2
C7H14OOH1-2O2	C7H14OOH1-3O2	C7H14OOH1-4O2	C7H14OOH1-5O2	C7H14OOH2-1O2
C7H14OOH2-3O2	C7H14OOH2-4O2	C7H14OOH2-5O2	C7H14OOH2-6O2	C7H14OOH3-1O2
C7H14OOH3-2O2	C7H14OOH3-4O2	C7H14OOH3-5O2	C7H14OOH3-6O2	C7H14OOH3-7O2
C7H14OOH4-1O2	C7H14OOH4-2O2	C7H14OOH4-3O2	C8H16OOH1-2O2	C8H16OOH1-3O2
C8H16OOH1-4O2	C8H16OOH1-5O2	C8H16OOH2-1O2	C8H16OOH2-3O2	C8H16OOH2-4O2
C8H16OOH2-5O2	C8H16OOH2-6O2	C8H16OOH3-1O2	C8H16OOH3-2O2	C8H16OOH3-4O2
C8H16OOH3-5O2	C8H16OOH3-6O2	C8H16OOH3-7O2	C8H16OOH4-1O2	C8H16OOH4-2O2
C8H16OOH4-3O2	C8H16OOH4-5O2	C8H16OOH4-6O2	C8H16OOH4-7O2	C8H16OOH4-8O2
C9H18OOH1-2O2	C9H18OOH1-3O2	C9H18OOH1-4O2	C9H18OOH1-5O2	C9H18OOH2-1O2
C9H18OOH2-3O2	C9H18OOH2-4O2	C9H18OOH2-5O2	C9H18OOH2-6O2	C9H18OOH3-1O2
C9H18OOH3-2O2	C9H18OOH3-4O2	C9H18OOH3-5O2	C9H18OOH3-6O2	C9H18OOH3-7O2
C9H18OOH4-1O2	C9H18OOH4-2O2	C9H18OOH4-3O2	C9H18OOH4-5O2	C9H18OOH4-6O2
C9H18OOH4-7O2	C9H18OOH4-8O2	C9H18OOH5-1O2	C9H18OOH5-2O2	C9H18OOH5-3O2
C9H18OOH5-4O2	MEMOOH2O2	ME2OOHMO2	MPMOOH2O2	MPMOOH3O2
MP2OOHMO2	MP2OOH3O2	MP3OOHMO2	MP3OOH2O2	MBMOOH2O2
MBMOOH3O2	MB2OOHMO2	MB2OOH3O2	MB2OOH4O2	MB3OOHMO2
MB3OOH2O2	MB3OOH4O2	MB4OOH3O2	MB4OOH2O2	MFMOOH2O2
MFMOOH3O2	MF2OOHMO2	MF2OOH3O2	MF2OOH4O2	MF2OOH5O2
MF3OOHMO2	MF3OOH2O2	MF3OOH4O2	MF3OOH5O2	MF4OOH3O2
MF4OOH2O2	MF4OOH5O2	MF5OOH4O2	MF5OOH3O2	MF5OOH2O2
MHMOOH2O2	MHMOOH3O2	MH2OOHMO2	MH2OOH3O2	MH2OOH4O2
MH2OOH5O2	MH2OOH6O2	MH3OOHMO2	MH3OOH2O2	MH3OOH4O2
MH3OOH5O2	MH3OOH6O2	MH4OOH3O2	MH4OOH2O2	MH4OOH5O2
MH4OOH6O2	MH5OOH4O2	MH5OOH3O2	MH5OOH2O2	MH5OOH6O2
MH6OOH5O2	MH6OOH4O2	MH6OOH3O2	MH6OOH2O2	MSMOOH2O2
MSMOOH3O2	MS2OOHMO2	MS2OOH3O2	MS2OOH4O2	MS2OOH5O2
MS2OOH6O2	MS3OOHMO2	MS3OOH2O2	MS3OOH4O2	MS3OOH5O2
MS3OOH6O2	MS3OOH7O2	MS4OOH3O2	MS4OOH2O2	MS4OOH5O2
MS4OOH6O2	MS4OOH7O2	MS5OOH4O2	MS5OOH3O2	MS5OOH2O2
MS5OOH6O2	MS5OOH7O2	MS6OOH5O2	MS6OOH4O2	MS6OOH3O2
MS6OOH2O2	MS6OOH7O2	MS7OOH6O2	MS7OOH5O2	MS7OOH4O2
MS7OOH3O2	MAMOOH2O2	MAMOOH3O2	MO2OOHMO2	MO2OOH3O2
MO2OOH4O2	MO2OOH5O2	MO2OOH6O2	MO3OOHMO2	MO3OOH2O2
MO3OOH4O2	MO3OOH5O2	MO3OOH6O2	MO3OOH7O2	MO4OOH3O2
MO4OOH2O2	MO4OOH5O2	MO4OOH6O2	MO4OOH7O2	MO4OOH8O2
MO5OOH4O2	MO5OOH3O2	MO5OOH2O2	MO5OOH6O2	MO5OOH7O2
MO5OOH8O2	MO6OOH5O2	MO6OOH4O2	MO6OOH3O2	MO6OOH2O2
MO6OOH7O2	MO6OOH8O2	MO7OOH6O2	MO7OOH5O2	MO7OOH4O2
MO7OOH3O2	MO7OOH8O2	MO8OOH7O2	MO8OOH6O2	MO8OOH5O2
MO8OOH4O2	MNMOOH2O2	MNMOOH3O2	MN2OOHMO2	MN2OOH3O2
MN2OOH4O2	MN2OOH5O2	MN2OOH6O2	MN3OOHMO2	MN3OOH2O2
MN3OOH4O2	MN3OOH5O2	MN3OOH6O2	MN3OOH7O2	MN4OOH3O2
MN4OOH2O2	MN4OOH5O2	MN4OOH6O2	MN4OOH7O2	MN4OOH8O2
MN5OOH4O2	MN5OOH3O2	MN5OOH2O2	MN5OOH6O2	MN5OOH7O2
MN5OOH8O2	MN5OOH9O2	MN6OOH5O2	MN6OOH4O2	MN6OOH3O2
MN6OOH2O2	MN6OOH7O2	MN6OOH8O2	MN6OOH9O2	MN7OOH6O2
MN7OOH5O2	MN7OOH4O2	MN7OOH3O2	MN7OOH8O2	MN7OOH9O2
MN8OOH7O2	MN8OOH6O2	MN8OOH5O2	MN8OOH4O2	MN8OOH9O2
MN9OOH8O2	MN9OOH7O2	MN9OOH6O2	MN9OOH5O2
!
NAOJ2OXO	OAOJ2OXO	SAOJ2OXO	HAOJ2OXO	FAOJ2OXO
BAOJ2OXO	PAOJ2OXO	EAOJ2OXO	NAOJ3OXO	OAOJ3OXO
SAOJ3OXO	HAOJ3OXO	FAOJ3OXO	BAOJ3OXO	PAOJ3OXO
!
!MOLECULES WITHOUT O
H2             		CH4             	C2H4            	C2H6            	C3H6
IC4H8          		C2H2            	C3H8            	C3H4-A          	C3H4-P
C9H18-1       		C8H16-1         	C7H14-1         	C6H12-1
C5H10-1      	  	C4H8-1          
C5H10-2      	  	C6H12-2         	C6H12-3         	C7H14-2         	C7H14-3
C8H16-2       	 	C8H16-3         	C8H16-4         	C9H18-2         	C9H18-3
C9H18-4        		C4H8-2          	C4H6            	C5H8-13         	C5H8-14
C6H10-13        	C6H10-14        	C6H10-15        	C7H12-13        	C7H12-14
C7H12-15        	C7H12-16        	C8H14-13        	C8H14-14        	C8H14-15
C8H14-16        	C8H14-17       		C9H16-13        	C9H16-14        	C9H16-15
C9H16-16        	C9H16-17        	C9H16-18
C4H6-1			C5H8-1			C6H10-1			C7H12-1			C8H14-1
C9H16-1			C4H6-12			C5H8-12			C6H10-12		C7H12-12
C8H14-12		C9H16-12
!
!MOLECULES WITH O
O2              	H2O             	H2O2            	CO              	CO2
CH2O            	CH3OH           	CH3O2H          	HO2CHO          	HOCHO
OCH2O2H         	HOCH2O2H        	C2H5O2H         	CH3CO3H 
C2H5OH          	HCCOH           	CH3COCH2O2H     
CH3OCHO         	CH3OCH3         	CH3OCH2O2H      	HO2CH2OCHO
NC3H7O2H        	IC3H7O2H        	C3H6OH          	C3H51-2-3OOH    	AC3H5OOH
ME              	MD              	C2H3CHCO        	C3H5CHCO
C4H7CHCO        	C5H9CHCO        	C6H11CHCO       	C7H13CHCO       	C8H15CHCO
MF24D           	MH35D           	MS46D           	MO57D           	MN68D
MD79D           	MN58D			MO47D			MN48D			MF34D
MS36D			MO37D			MN38D			MB23D			MH25D
MS26D			MO27D			MN28D			MN78D			MO67D
MS56D			MH45D
CH3CHCO         	C2H5CHCO		
C3H6CHO
COCO
C2H5COCHCO		C3H7COCHCO		C4H9COCHCO		C5H11COCHCO
C6H13COCHCO		HCOCO			CH3COCO
C2H5COCO		C3H7COCO		C4H9COCO		C5H11COCO		C6H13COCO
C7H15COCO		CH2CCO
MP2T			MB3T			MF4T			MH5T			MS6T
MO7T			MN8T			MD9T
!
!ALDEHYDES AND KETONES
C8H17CHO        	C7H15CHO        	C6H13CHO        	C5H11CHO        	C4H9CHO
C3H7CHO         	C2H5COCH3       	C3H7COCH3       	C4H9COCH3
C5H11COCH3      	C6H13COCH3
C7H15COCH3      	C2H5CHO         	CH3COCH3        	C2H3CHO         	CH3CHO
CH2OHCHCO		C5H9CHO		C4H7CHO			C3H5CHO
C2H3COC6H13		C3H5COC5H11		C2H3COC5H11
C4H7COC4H9		C3H5COC4H9		C2H3COC4H9		C5H9COC3H7
C3H5COC3H7		C2H3COC3H7		C5H9COC2H5		C4H7COC2H5		C4H7COC3H7
C3H5COC2H5		C2H3COC2H5		C5H9COCH3		C4H7COCH3		C3H5COCH3
C2H3COCH3		C7H15COCHCO		C6H13COCH2CHCO	C5H11COC2H4CHCO	C4H9COC3H6CHCO
!C5H11C2H2CH2CHO	C6H13C2H2CHO	C5H11C2H2CHO	C4H9C2H2C2H4CHO	C4H9C2H2CH2CHO	
!C4H9C2H2CHO	C3H7C2H2C3H6CHO	C3H7C2H2C2H4CHO	C3H7C2H2CH2CHO	C3H7C2H2CHO	
!C2H5C2H2C4H8CHO	C2H5C2H2C3H6CHO	C2H5C2H2C2H4CHO	C2H5C2H2CH2CHO	C2H5C2H2CHO	
!CH3C2H2C5H10CHO	CH3C2H2C4H8CHO	CH3C2H2C3H6CHO	CH3C2H2C2H4CHO	CH3C2H2CH2CHO	
!CH3C2H2CHO		C2H3C6H12CHO	C2H3C5H10CHO	C2H3C4H8CHO		C2H3C3H6CHO	
!C2H3C2H4CHO
C8H15CHCO-2		C8H15CHCO-3		C8H15CHCO-4		C8H15CHCO-5		C8H15CHCO-6
C8H15CHCO-7		C8H15CHCO-8		C6H11CHO		C8H15CHO		C7H13CHO
!
!CYCLIC ETHERS
C4H8O1-2        	C4H8O1-3        	C4H8O1-4        	C4H8O2-3        	C5H10O1-2
C5H10O1-3       	C5H10O1-4       	C5H10O1-5       	C5H10O2-3       	C5H10O2-4
C6H12O1-2       	C6H12O1-3       	C6H12O1-4       	C6H12O1-5       	C6H12O2-3
C6H12O2-4       	C6H12O2-5       	C6H12O3-4       	C7H14O1-2       	C7H14O1-3
C7H14O1-4       	C7H14O1-5       	C7H14O2-3       	C7H14O2-4       	C7H14O2-5
C7H14O2-6       	C7H14O3-4       	C7H14O3-5       	C8H16O1-2       	C8H16O1-3
C8H16O1-4       	C8H16O1-5       	C8H16O2-3       	C8H16O2-4       	C8H16O2-5
C8H16O2-6       	C8H16O3-4       	C8H16O3-5       	C8H16O3-6       
C8H16O4-5       	C9H18O1-2       	C9H18O1-3       	C9H18O1-4       	C9H18O1-5