/*--------------------------------*- C++ -*----------------------------------*\
  =========                 |
  \\      /  F ield         | OpenFOAM: The Open Source CFD Toolbox
   \\    /   O peration     | Website:  https://openfoam.org
    \\  /    A nd           | Version:  12
     \\/     M anipulation  |
\*---------------------------------------------------------------------------*/
FoamFile
{
    format      ascii;
    class       dictionary;
    location    "system";
    object      decomposeParDict;
}
// * * * * * * * * * * * * * * * * * * * * * * * * * * * * * * * * * * * * * //

numberOfSubdomains 8;

decomposer      simple;

distributor     zoltan;
libs            ("libzoltanDecomp.so");

// distributor     parMetis;
// libs            ("libparMetisDecomp.so");

simpleCoeffs
{
    n               (1 1 8);
    delta           0.000001;
}

zoltanCoeffs
{
    lb_method   rcb;
}

// ************************************************************************* //
